I"Õ/Users/conniewang/Desktop/Module%20Two/rails-dynamic-request-readme-web-103017/app/assets/stylesheets/application.css?type=text/css&pipeline=self&id=bba3586209d2f6d46457c3f258a3b7248cfcdcbe202996e2650a7f2febe7f422:ET