[o:Set:
@hash}I"environment-version:ETTI"environment-paths;TTI"0processors:type=text/css&file_type=text/css;TTI"ƒfile-digest:///Users/conniewang/Desktop/Module%20Two/rails-dynamic-request-readme-web-103017/app/assets/stylesheets/application.css;TTI">processors:type=text/css&file_type=text/css&pipeline=self;TTI"xfile-digest:///Users/conniewang/Desktop/Module%20Two/rails-dynamic-request-readme-web-103017/app/assets/stylesheets;TTF