I"Ç/Users/conniewang/Desktop/Module%20Two/rails-dynamic-request-readme-web-103017/app/assets/stylesheets/application.css?type=text/css&id=56764c88664e6eb5b42f81f50f212b100e7cbd653d6a04fdb985b44d4d1cb1c5:ET