I"â/Users/conniewang/Desktop/Module%20Two/rails-dynamic-request-readme-web-103017/app/assets/javascripts/application.js?type=application/javascript&pipeline=self&id=3433ed816d4799757ca145077978347ed1ad1649523a2c194881ffdf9b28704a:ET