I"Ô/Users/conniewang/Desktop/Module%20Two/rails-dynamic-request-readme-web-103017/app/assets/javascripts/application.js?type=application/javascript&id=a4750385f9307131f3f052772cb2b58fc135441ddb7152a02e87e7fcf46fb7ed:ET